
  EPA STORM WATER MANAGEMENT MODEL - VERSION 5.1 (Build 5.1.015)
  --------------------------------------------------------------

  WARNING 05: minimum slope used for Conduit 1
  WARNING 04: minimum elevation drop used for Conduit 1001
  WARNING 05: minimum slope used for Conduit 1001
  WARNING 05: minimum slope used for Conduit 1002
  WARNING 05: minimum slope used for Conduit 1004
  WARNING 05: minimum slope used for Conduit 1005
  WARNING 05: minimum slope used for Conduit 1006
  WARNING 05: minimum slope used for Conduit 1007
  WARNING 05: minimum slope used for Conduit 1008
  WARNING 04: minimum elevation drop used for Conduit 1009
  WARNING 05: minimum slope used for Conduit 1009
  WARNING 04: minimum elevation drop used for Conduit 1010
  WARNING 05: minimum slope used for Conduit 1010
  WARNING 04: minimum elevation drop used for Conduit 1011
  WARNING 05: minimum slope used for Conduit 1011
  WARNING 04: minimum elevation drop used for Conduit 1012
  WARNING 05: minimum slope used for Conduit 1012
  WARNING 05: minimum slope used for Conduit 1013
  WARNING 05: minimum slope used for Conduit 1014
  WARNING 05: minimum slope used for Conduit 1015
  WARNING 05: minimum slope used for Conduit 102
  WARNING 05: minimum slope used for Conduit 1021
  WARNING 05: minimum slope used for Conduit 1022
  WARNING 05: minimum slope used for Conduit 1023
  WARNING 05: minimum slope used for Conduit 1024
  WARNING 05: minimum slope used for Conduit 1025
  WARNING 05: minimum slope used for Conduit 1026
  WARNING 05: minimum slope used for Conduit 103
  WARNING 05: minimum slope used for Conduit 1030
  WARNING 05: minimum slope used for Conduit 1033
  WARNING 05: minimum slope used for Conduit 1035
  WARNING 04: minimum elevation drop used for Conduit 104
  WARNING 05: minimum slope used for Conduit 104
  WARNING 05: minimum slope used for Conduit 1040
  WARNING 05: minimum slope used for Conduit 1043
  WARNING 05: minimum slope used for Conduit 1045
  WARNING 05: minimum slope used for Conduit 1047
  WARNING 05: minimum slope used for Conduit 105
  WARNING 05: minimum slope used for Conduit 1051
  WARNING 05: minimum slope used for Conduit 1052
  WARNING 05: minimum slope used for Conduit 1053
  WARNING 05: minimum slope used for Conduit 1054
  WARNING 05: minimum slope used for Conduit 1057
  WARNING 05: minimum slope used for Conduit 1064
  WARNING 05: minimum slope used for Conduit 1065
  WARNING 05: minimum slope used for Conduit 107
  WARNING 05: minimum slope used for Conduit 1072
  WARNING 05: minimum slope used for Conduit 1074
  WARNING 05: minimum slope used for Conduit 1075
  WARNING 05: minimum slope used for Conduit 1076
  WARNING 05: minimum slope used for Conduit 1078
  WARNING 04: minimum elevation drop used for Conduit 1079
  WARNING 05: minimum slope used for Conduit 1079
  WARNING 05: minimum slope used for Conduit 108
  WARNING 05: minimum slope used for Conduit 1080
  WARNING 05: minimum slope used for Conduit 1084
  WARNING 05: minimum slope used for Conduit 1085
  WARNING 05: minimum slope used for Conduit 1087
  WARNING 05: minimum slope used for Conduit 1088
  WARNING 05: minimum slope used for Conduit 109
  WARNING 05: minimum slope used for Conduit 1090
  WARNING 05: minimum slope used for Conduit 1092
  WARNING 05: minimum slope used for Conduit 1093
  WARNING 05: minimum slope used for Conduit 1094
  WARNING 05: minimum slope used for Conduit 1095
  WARNING 05: minimum slope used for Conduit 1096
  WARNING 05: minimum slope used for Conduit 1097
  WARNING 05: minimum slope used for Conduit 1099
  WARNING 05: minimum slope used for Conduit 11
  WARNING 05: minimum slope used for Conduit 110
  WARNING 05: minimum slope used for Conduit 1100
  WARNING 05: minimum slope used for Conduit 1101
  WARNING 05: minimum slope used for Conduit 1102
  WARNING 05: minimum slope used for Conduit 1103
  WARNING 05: minimum slope used for Conduit 1104
  WARNING 05: minimum slope used for Conduit 1105
  WARNING 05: minimum slope used for Conduit 1106
  WARNING 05: minimum slope used for Conduit 1107
  WARNING 05: minimum slope used for Conduit 1108
  WARNING 05: minimum slope used for Conduit 1109
  WARNING 05: minimum slope used for Conduit 1110
  WARNING 05: minimum slope used for Conduit 1111
  WARNING 05: minimum slope used for Conduit 1112
  WARNING 05: minimum slope used for Conduit 1113
  WARNING 05: minimum slope used for Conduit 1114
  WARNING 05: minimum slope used for Conduit 1115
  WARNING 05: minimum slope used for Conduit 1116
  WARNING 05: minimum slope used for Conduit 1117
  WARNING 05: minimum slope used for Conduit 1118
  WARNING 05: minimum slope used for Conduit 1119
  WARNING 05: minimum slope used for Conduit 112
  WARNING 05: minimum slope used for Conduit 1120
  WARNING 05: minimum slope used for Conduit 1121
  WARNING 05: minimum slope used for Conduit 1124
  WARNING 05: minimum slope used for Conduit 1125
  WARNING 05: minimum slope used for Conduit 1128
  WARNING 05: minimum slope used for Conduit 1132
  WARNING 05: minimum slope used for Conduit 1134
  WARNING 05: minimum slope used for Conduit 1135
  WARNING 04: minimum elevation drop used for Conduit 1137
  WARNING 05: minimum slope used for Conduit 1137
  WARNING 05: minimum slope used for Conduit 1139
  WARNING 05: minimum slope used for Conduit 1140
  WARNING 05: minimum slope used for Conduit 1141
  WARNING 05: minimum slope used for Conduit 1142
  WARNING 04: minimum elevation drop used for Conduit 1144
  WARNING 05: minimum slope used for Conduit 1144
  WARNING 05: minimum slope used for Conduit 117
  WARNING 05: minimum slope used for Conduit 120
  WARNING 05: minimum slope used for Conduit 122
  WARNING 05: minimum slope used for Conduit 123
  WARNING 05: minimum slope used for Conduit 125
  WARNING 05: minimum slope used for Conduit 126
  WARNING 05: minimum slope used for Conduit 13
  WARNING 05: minimum slope used for Conduit 132
  WARNING 05: minimum slope used for Conduit 133
  WARNING 05: minimum slope used for Conduit 136
  WARNING 05: minimum slope used for Conduit 139
  WARNING 05: minimum slope used for Conduit 142
  WARNING 05: minimum slope used for Conduit 143
  WARNING 05: minimum slope used for Conduit 144
  WARNING 05: minimum slope used for Conduit 1444
  WARNING 05: minimum slope used for Conduit 145
  WARNING 05: minimum slope used for Conduit 146
  WARNING 05: minimum slope used for Conduit 15
  WARNING 05: minimum slope used for Conduit 153
  WARNING 05: minimum slope used for Conduit 155
  WARNING 05: minimum slope used for Conduit 156
  WARNING 05: minimum slope used for Conduit 157
  WARNING 05: minimum slope used for Conduit 158
  WARNING 05: minimum slope used for Conduit 159
  WARNING 05: minimum slope used for Conduit 16
  WARNING 05: minimum slope used for Conduit 161
  WARNING 05: minimum slope used for Conduit 162
  WARNING 05: minimum slope used for Conduit 165
  WARNING 05: minimum slope used for Conduit 166
  WARNING 05: minimum slope used for Conduit 169
  WARNING 04: minimum elevation drop used for Conduit 171
  WARNING 05: minimum slope used for Conduit 171
  WARNING 05: minimum slope used for Conduit 173
  WARNING 05: minimum slope used for Conduit 178
  WARNING 05: minimum slope used for Conduit 179
  WARNING 05: minimum slope used for Conduit 18
  WARNING 05: minimum slope used for Conduit 181
  WARNING 05: minimum slope used for Conduit 182
  WARNING 05: minimum slope used for Conduit 184
  WARNING 05: minimum slope used for Conduit 185
  WARNING 05: minimum slope used for Conduit 186
  WARNING 05: minimum slope used for Conduit 19
  WARNING 05: minimum slope used for Conduit 195
  WARNING 05: minimum slope used for Conduit 196
  WARNING 05: minimum slope used for Conduit 198
  WARNING 04: minimum elevation drop used for Conduit 199
  WARNING 05: minimum slope used for Conduit 199
  WARNING 05: minimum slope used for Conduit 2
  WARNING 05: minimum slope used for Conduit 20
  WARNING 05: minimum slope used for Conduit 200
  WARNING 05: minimum slope used for Conduit 202
  WARNING 05: minimum slope used for Conduit 204
  WARNING 05: minimum slope used for Conduit 21
  WARNING 05: minimum slope used for Conduit 210
  WARNING 05: minimum slope used for Conduit 211
  WARNING 05: minimum slope used for Conduit 212
  WARNING 05: minimum slope used for Conduit 213
  WARNING 05: minimum slope used for Conduit 214
  WARNING 05: minimum slope used for Conduit 216
  WARNING 05: minimum slope used for Conduit 219
  WARNING 05: minimum slope used for Conduit 220
  WARNING 05: minimum slope used for Conduit 222
  WARNING 05: minimum slope used for Conduit 224
  WARNING 05: minimum slope used for Conduit 225
  WARNING 05: minimum slope used for Conduit 228
  WARNING 05: minimum slope used for Conduit 229
  WARNING 05: minimum slope used for Conduit 23
  WARNING 05: minimum slope used for Conduit 230
  WARNING 05: minimum slope used for Conduit 232
  WARNING 05: minimum slope used for Conduit 233
  WARNING 05: minimum slope used for Conduit 235
  WARNING 05: minimum slope used for Conduit 239
  WARNING 05: minimum slope used for Conduit 241
  WARNING 05: minimum slope used for Conduit 244
  WARNING 05: minimum slope used for Conduit 246
  WARNING 05: minimum slope used for Conduit 25
  WARNING 05: minimum slope used for Conduit 250
  WARNING 05: minimum slope used for Conduit 254
  WARNING 05: minimum slope used for Conduit 261
  WARNING 05: minimum slope used for Conduit 263
  WARNING 05: minimum slope used for Conduit 267
  WARNING 05: minimum slope used for Conduit 268
  WARNING 05: minimum slope used for Conduit 273
  WARNING 05: minimum slope used for Conduit 274
  WARNING 05: minimum slope used for Conduit 276
  WARNING 05: minimum slope used for Conduit 278
  WARNING 05: minimum slope used for Conduit 281
  WARNING 04: minimum elevation drop used for Conduit 282
  WARNING 05: minimum slope used for Conduit 282
  WARNING 05: minimum slope used for Conduit 284
  WARNING 04: minimum elevation drop used for Conduit 286
  WARNING 05: minimum slope used for Conduit 286
  WARNING 04: minimum elevation drop used for Conduit 287
  WARNING 05: minimum slope used for Conduit 287
  WARNING 05: minimum slope used for Conduit 29
  WARNING 05: minimum slope used for Conduit 290
  WARNING 05: minimum slope used for Conduit 291
  WARNING 05: minimum slope used for Conduit 294
  WARNING 04: minimum elevation drop used for Conduit 299
  WARNING 05: minimum slope used for Conduit 299
  WARNING 05: minimum slope used for Conduit 3
  WARNING 05: minimum slope used for Conduit 30
  WARNING 05: minimum slope used for Conduit 302
  WARNING 05: minimum slope used for Conduit 305
  WARNING 05: minimum slope used for Conduit 309
  WARNING 05: minimum slope used for Conduit 316
  WARNING 05: minimum slope used for Conduit 317
  WARNING 05: minimum slope used for Conduit 318
  WARNING 05: minimum slope used for Conduit 319
  WARNING 05: minimum slope used for Conduit 32
  WARNING 05: minimum slope used for Conduit 323
  WARNING 05: minimum slope used for Conduit 326
  WARNING 04: minimum elevation drop used for Conduit 327
  WARNING 05: minimum slope used for Conduit 327
  WARNING 05: minimum slope used for Conduit 33
  WARNING 05: minimum slope used for Conduit 330
  WARNING 05: minimum slope used for Conduit 335
  WARNING 05: minimum slope used for Conduit 337
  WARNING 05: minimum slope used for Conduit 34
  WARNING 05: minimum slope used for Conduit 340
  WARNING 05: minimum slope used for Conduit 341
  WARNING 05: minimum slope used for Conduit 345
  WARNING 05: minimum slope used for Conduit 347
  WARNING 05: minimum slope used for Conduit 349
  WARNING 05: minimum slope used for Conduit 35
  WARNING 05: minimum slope used for Conduit 350
  WARNING 05: minimum slope used for Conduit 352
  WARNING 05: minimum slope used for Conduit 353
  WARNING 05: minimum slope used for Conduit 356
  WARNING 05: minimum slope used for Conduit 357
  WARNING 05: minimum slope used for Conduit 360
  WARNING 05: minimum slope used for Conduit 362
  WARNING 05: minimum slope used for Conduit 363
  WARNING 04: minimum elevation drop used for Conduit 365
  WARNING 05: minimum slope used for Conduit 365
  WARNING 05: minimum slope used for Conduit 37
  WARNING 05: minimum slope used for Conduit 371
  WARNING 05: minimum slope used for Conduit 372
  WARNING 05: minimum slope used for Conduit 374
  WARNING 04: minimum elevation drop used for Conduit 375
  WARNING 05: minimum slope used for Conduit 375
  WARNING 05: minimum slope used for Conduit 379
  WARNING 05: minimum slope used for Conduit 380
  WARNING 05: minimum slope used for Conduit 381
  WARNING 05: minimum slope used for Conduit 382
  WARNING 05: minimum slope used for Conduit 383
  WARNING 05: minimum slope used for Conduit 384
  WARNING 05: minimum slope used for Conduit 387
  WARNING 05: minimum slope used for Conduit 389
  WARNING 05: minimum slope used for Conduit 391
  WARNING 04: minimum elevation drop used for Conduit 393
  WARNING 05: minimum slope used for Conduit 393
  WARNING 05: minimum slope used for Conduit 395
  WARNING 05: minimum slope used for Conduit 396
  WARNING 05: minimum slope used for Conduit 397
  WARNING 05: minimum slope used for Conduit 407
  WARNING 05: minimum slope used for Conduit 41
  WARNING 05: minimum slope used for Conduit 412
  WARNING 05: minimum slope used for Conduit 416
  WARNING 05: minimum slope used for Conduit 417
  WARNING 05: minimum slope used for Conduit 421
  WARNING 04: minimum elevation drop used for Conduit 422
  WARNING 05: minimum slope used for Conduit 422
  WARNING 05: minimum slope used for Conduit 424
  WARNING 05: minimum slope used for Conduit 425
  WARNING 05: minimum slope used for Conduit 429
  WARNING 05: minimum slope used for Conduit 43
  WARNING 05: minimum slope used for Conduit 430
  WARNING 05: minimum slope used for Conduit 431
  WARNING 05: minimum slope used for Conduit 433
  WARNING 05: minimum slope used for Conduit 435
  WARNING 05: minimum slope used for Conduit 436
  WARNING 05: minimum slope used for Conduit 438
  WARNING 05: minimum slope used for Conduit 44
  WARNING 05: minimum slope used for Conduit 442
  WARNING 05: minimum slope used for Conduit 446
  WARNING 04: minimum elevation drop used for Conduit 448
  WARNING 05: minimum slope used for Conduit 448
  WARNING 05: minimum slope used for Conduit 451
  WARNING 05: minimum slope used for Conduit 452
  WARNING 05: minimum slope used for Conduit 453
  WARNING 05: minimum slope used for Conduit 458
  WARNING 05: minimum slope used for Conduit 46
  WARNING 04: minimum elevation drop used for Conduit 460
  WARNING 05: minimum slope used for Conduit 460
  WARNING 05: minimum slope used for Conduit 461
  WARNING 05: minimum slope used for Conduit 463
  WARNING 05: minimum slope used for Conduit 465
  WARNING 05: minimum slope used for Conduit 466
  WARNING 05: minimum slope used for Conduit 47
  WARNING 05: minimum slope used for Conduit 471
  WARNING 05: minimum slope used for Conduit 473
  WARNING 05: minimum slope used for Conduit 474
  WARNING 05: minimum slope used for Conduit 476
  WARNING 05: minimum slope used for Conduit 478
  WARNING 05: minimum slope used for Conduit 479
  WARNING 05: minimum slope used for Conduit 48
  WARNING 05: minimum slope used for Conduit 480
  WARNING 05: minimum slope used for Conduit 481
  WARNING 05: minimum slope used for Conduit 482
  WARNING 05: minimum slope used for Conduit 483
  WARNING 04: minimum elevation drop used for Conduit 484
  WARNING 05: minimum slope used for Conduit 484
  WARNING 05: minimum slope used for Conduit 488
  WARNING 05: minimum slope used for Conduit 489
  WARNING 05: minimum slope used for Conduit 49
  WARNING 04: minimum elevation drop used for Conduit 491
  WARNING 05: minimum slope used for Conduit 491
  WARNING 05: minimum slope used for Conduit 492
  WARNING 05: minimum slope used for Conduit 494
  WARNING 05: minimum slope used for Conduit 495
  WARNING 04: minimum elevation drop used for Conduit 497
  WARNING 05: minimum slope used for Conduit 497
  WARNING 05: minimum slope used for Conduit 499
  WARNING 05: minimum slope used for Conduit 50
  WARNING 05: minimum slope used for Conduit 51
  WARNING 05: minimum slope used for Conduit 510
  WARNING 05: minimum slope used for Conduit 513
  WARNING 05: minimum slope used for Conduit 514
  WARNING 05: minimum slope used for Conduit 516
  WARNING 05: minimum slope used for Conduit 517
  WARNING 05: minimum slope used for Conduit 518
  WARNING 05: minimum slope used for Conduit 52
  WARNING 05: minimum slope used for Conduit 521
  WARNING 04: minimum elevation drop used for Conduit 522
  WARNING 05: minimum slope used for Conduit 522
  WARNING 05: minimum slope used for Conduit 525
  WARNING 05: minimum slope used for Conduit 528
  WARNING 05: minimum slope used for Conduit 529
  WARNING 05: minimum slope used for Conduit 532
  WARNING 05: minimum slope used for Conduit 534
  WARNING 05: minimum slope used for Conduit 535
  WARNING 05: minimum slope used for Conduit 536
  WARNING 05: minimum slope used for Conduit 538
  WARNING 05: minimum slope used for Conduit 54
  WARNING 05: minimum slope used for Conduit 541
  WARNING 05: minimum slope used for Conduit 543
  WARNING 05: minimum slope used for Conduit 544
  WARNING 04: minimum elevation drop used for Conduit 546
  WARNING 05: minimum slope used for Conduit 546
  WARNING 05: minimum slope used for Conduit 548
  WARNING 05: minimum slope used for Conduit 55
  WARNING 05: minimum slope used for Conduit 550
  WARNING 05: minimum slope used for Conduit 551
  WARNING 05: minimum slope used for Conduit 553
  WARNING 05: minimum slope used for Conduit 554
  WARNING 05: minimum slope used for Conduit 556
  WARNING 05: minimum slope used for Conduit 558
  WARNING 05: minimum slope used for Conduit 56
  WARNING 05: minimum slope used for Conduit 562
  WARNING 05: minimum slope used for Conduit 563
  WARNING 05: minimum slope used for Conduit 564
  WARNING 05: minimum slope used for Conduit 565
  WARNING 05: minimum slope used for Conduit 567
  WARNING 05: minimum slope used for Conduit 568
  WARNING 05: minimum slope used for Conduit 572
  WARNING 05: minimum slope used for Conduit 575
  WARNING 05: minimum slope used for Conduit 576
  WARNING 05: minimum slope used for Conduit 578
  WARNING 05: minimum slope used for Conduit 581
  WARNING 05: minimum slope used for Conduit 583
  WARNING 05: minimum slope used for Conduit 584
  WARNING 05: minimum slope used for Conduit 585
  WARNING 05: minimum slope used for Conduit 586
  WARNING 05: minimum slope used for Conduit 587
  WARNING 05: minimum slope used for Conduit 589
  WARNING 05: minimum slope used for Conduit 593
  WARNING 05: minimum slope used for Conduit 594
  WARNING 05: minimum slope used for Conduit 595
  WARNING 05: minimum slope used for Conduit 596
  WARNING 05: minimum slope used for Conduit 601
  WARNING 05: minimum slope used for Conduit 602
  WARNING 05: minimum slope used for Conduit 604
  WARNING 05: minimum slope used for Conduit 607
  WARNING 05: minimum slope used for Conduit 608
  WARNING 05: minimum slope used for Conduit 609
  WARNING 05: minimum slope used for Conduit 61
  WARNING 04: minimum elevation drop used for Conduit 610
  WARNING 05: minimum slope used for Conduit 610
  WARNING 05: minimum slope used for Conduit 611
  WARNING 04: minimum elevation drop used for Conduit 614
  WARNING 05: minimum slope used for Conduit 614
  WARNING 04: minimum elevation drop used for Conduit 615
  WARNING 05: minimum slope used for Conduit 615
  WARNING 05: minimum slope used for Conduit 616
  WARNING 05: minimum slope used for Conduit 617
  WARNING 05: minimum slope used for Conduit 619
  WARNING 05: minimum slope used for Conduit 622
  WARNING 05: minimum slope used for Conduit 623
  WARNING 05: minimum slope used for Conduit 624
  WARNING 05: minimum slope used for Conduit 625
  WARNING 05: minimum slope used for Conduit 627
  WARNING 05: minimum slope used for Conduit 628
  WARNING 05: minimum slope used for Conduit 629
  WARNING 04: minimum elevation drop used for Conduit 63
  WARNING 05: minimum slope used for Conduit 63
  WARNING 05: minimum slope used for Conduit 630
  WARNING 05: minimum slope used for Conduit 631
  WARNING 05: minimum slope used for Conduit 632
  WARNING 05: minimum slope used for Conduit 633
  WARNING 05: minimum slope used for Conduit 637
  WARNING 05: minimum slope used for Conduit 638
  WARNING 05: minimum slope used for Conduit 640
  WARNING 05: minimum slope used for Conduit 641
  WARNING 05: minimum slope used for Conduit 642
  WARNING 05: minimum slope used for Conduit 643
  WARNING 05: minimum slope used for Conduit 645
  WARNING 05: minimum slope used for Conduit 647
  WARNING 05: minimum slope used for Conduit 648
  WARNING 05: minimum slope used for Conduit 649
  WARNING 05: minimum slope used for Conduit 65
  WARNING 05: minimum slope used for Conduit 651
  WARNING 05: minimum slope used for Conduit 654
  WARNING 05: minimum slope used for Conduit 656
  WARNING 05: minimum slope used for Conduit 657
  WARNING 05: minimum slope used for Conduit 659
  WARNING 05: minimum slope used for Conduit 660
  WARNING 04: minimum elevation drop used for Conduit 661
  WARNING 05: minimum slope used for Conduit 661
  WARNING 05: minimum slope used for Conduit 662
  WARNING 05: minimum slope used for Conduit 667
  WARNING 05: minimum slope used for Conduit 668
  WARNING 05: minimum slope used for Conduit 669
  WARNING 05: minimum slope used for Conduit 670
  WARNING 05: minimum slope used for Conduit 671
  WARNING 05: minimum slope used for Conduit 674
  WARNING 05: minimum slope used for Conduit 677
  WARNING 05: minimum slope used for Conduit 679
  WARNING 05: minimum slope used for Conduit 680
  WARNING 05: minimum slope used for Conduit 684
  WARNING 05: minimum slope used for Conduit 685
  WARNING 05: minimum slope used for Conduit 686
  WARNING 04: minimum elevation drop used for Conduit 687
  WARNING 05: minimum slope used for Conduit 687
  WARNING 05: minimum slope used for Conduit 689
  WARNING 05: minimum slope used for Conduit 69
  WARNING 05: minimum slope used for Conduit 690
  WARNING 05: minimum slope used for Conduit 693
  WARNING 05: minimum slope used for Conduit 695
  WARNING 05: minimum slope used for Conduit 696
  WARNING 05: minimum slope used for Conduit 698
  WARNING 05: minimum slope used for Conduit 700
  WARNING 05: minimum slope used for Conduit 702
  WARNING 05: minimum slope used for Conduit 703
  WARNING 05: minimum slope used for Conduit 704
  WARNING 05: minimum slope used for Conduit 705
  WARNING 05: minimum slope used for Conduit 706
  WARNING 05: minimum slope used for Conduit 707
  WARNING 05: minimum slope used for Conduit 709
  WARNING 05: minimum slope used for Conduit 71
  WARNING 05: minimum slope used for Conduit 710
  WARNING 05: minimum slope used for Conduit 712
  WARNING 05: minimum slope used for Conduit 713
  WARNING 05: minimum slope used for Conduit 717
  WARNING 05: minimum slope used for Conduit 718
  WARNING 05: minimum slope used for Conduit 719
  WARNING 05: minimum slope used for Conduit 72
  WARNING 05: minimum slope used for Conduit 720
  WARNING 05: minimum slope used for Conduit 721
  WARNING 05: minimum slope used for Conduit 723
  WARNING 05: minimum slope used for Conduit 725
  WARNING 05: minimum slope used for Conduit 727
  WARNING 05: minimum slope used for Conduit 73
  WARNING 05: minimum slope used for Conduit 733
  WARNING 05: minimum slope used for Conduit 734
  WARNING 05: minimum slope used for Conduit 737
  WARNING 05: minimum slope used for Conduit 738
  WARNING 05: minimum slope used for Conduit 739
  WARNING 05: minimum slope used for Conduit 74
  WARNING 05: minimum slope used for Conduit 740
  WARNING 05: minimum slope used for Conduit 741
  WARNING 05: minimum slope used for Conduit 742
  WARNING 05: minimum slope used for Conduit 743
  WARNING 05: minimum slope used for Conduit 746
  WARNING 05: minimum slope used for Conduit 747
  WARNING 05: minimum slope used for Conduit 750
  WARNING 05: minimum slope used for Conduit 751
  WARNING 05: minimum slope used for Conduit 752
  WARNING 05: minimum slope used for Conduit 753
  WARNING 05: minimum slope used for Conduit 754
  WARNING 05: minimum slope used for Conduit 755
  WARNING 05: minimum slope used for Conduit 76
  WARNING 05: minimum slope used for Conduit 761
  WARNING 05: minimum slope used for Conduit 762
  WARNING 05: minimum slope used for Conduit 764
  WARNING 05: minimum slope used for Conduit 765
  WARNING 05: minimum slope used for Conduit 766
  WARNING 05: minimum slope used for Conduit 767
  WARNING 05: minimum slope used for Conduit 775
  WARNING 05: minimum slope used for Conduit 776
  WARNING 05: minimum slope used for Conduit 780
  WARNING 05: minimum slope used for Conduit 781
  WARNING 05: minimum slope used for Conduit 783
  WARNING 05: minimum slope used for Conduit 784
  WARNING 05: minimum slope used for Conduit 785
  WARNING 05: minimum slope used for Conduit 787
  WARNING 05: minimum slope used for Conduit 789
  WARNING 05: minimum slope used for Conduit 790
  WARNING 05: minimum slope used for Conduit 791
  WARNING 05: minimum slope used for Conduit 794
  WARNING 05: minimum slope used for Conduit 796
  WARNING 05: minimum slope used for Conduit 798
  WARNING 05: minimum slope used for Conduit 799
  WARNING 05: minimum slope used for Conduit 8
  WARNING 05: minimum slope used for Conduit 800
  WARNING 05: minimum slope used for Conduit 801
  WARNING 05: minimum slope used for Conduit 802
  WARNING 05: minimum slope used for Conduit 804
  WARNING 05: minimum slope used for Conduit 806
  WARNING 05: minimum slope used for Conduit 807
  WARNING 05: minimum slope used for Conduit 808
  WARNING 05: minimum slope used for Conduit 809
  WARNING 05: minimum slope used for Conduit 810
  WARNING 05: minimum slope used for Conduit 811
  WARNING 05: minimum slope used for Conduit 812
  WARNING 05: minimum slope used for Conduit 814
  WARNING 05: minimum slope used for Conduit 815
  WARNING 05: minimum slope used for Conduit 816
  WARNING 05: minimum slope used for Conduit 817
  WARNING 05: minimum slope used for Conduit 819
  WARNING 05: minimum slope used for Conduit 82
  WARNING 05: minimum slope used for Conduit 820
  WARNING 05: minimum slope used for Conduit 822
  WARNING 05: minimum slope used for Conduit 824
  WARNING 05: minimum slope used for Conduit 828
  WARNING 05: minimum slope used for Conduit 829
  WARNING 04: minimum elevation drop used for Conduit 83
  WARNING 05: minimum slope used for Conduit 83
  WARNING 05: minimum slope used for Conduit 834
  WARNING 05: minimum slope used for Conduit 835
  WARNING 05: minimum slope used for Conduit 836
  WARNING 05: minimum slope used for Conduit 837
  WARNING 05: minimum slope used for Conduit 838
  WARNING 05: minimum slope used for Conduit 839
  WARNING 05: minimum slope used for Conduit 84
  WARNING 05: minimum slope used for Conduit 844
  WARNING 05: minimum slope used for Conduit 845
  WARNING 05: minimum slope used for Conduit 846
  WARNING 05: minimum slope used for Conduit 847
  WARNING 05: minimum slope used for Conduit 848
  WARNING 05: minimum slope used for Conduit 849
  WARNING 05: minimum slope used for Conduit 85
  WARNING 05: minimum slope used for Conduit 850
  WARNING 05: minimum slope used for Conduit 853
  WARNING 05: minimum slope used for Conduit 855
  WARNING 05: minimum slope used for Conduit 856
  WARNING 05: minimum slope used for Conduit 857
  WARNING 05: minimum slope used for Conduit 864
  WARNING 05: minimum slope used for Conduit 865
  WARNING 05: minimum slope used for Conduit 866
  WARNING 05: minimum slope used for Conduit 869
  WARNING 05: minimum slope used for Conduit 87
  WARNING 05: minimum slope used for Conduit 870
  WARNING 05: minimum slope used for Conduit 871
  WARNING 05: minimum slope used for Conduit 872
  WARNING 05: minimum slope used for Conduit 875
  WARNING 05: minimum slope used for Conduit 877
  WARNING 05: minimum slope used for Conduit 878
  WARNING 05: minimum slope used for Conduit 880
  WARNING 05: minimum slope used for Conduit 881
  WARNING 05: minimum slope used for Conduit 883
  WARNING 05: minimum slope used for Conduit 884
  WARNING 05: minimum slope used for Conduit 885
  WARNING 05: minimum slope used for Conduit 886
  WARNING 05: minimum slope used for Conduit 890
  WARNING 05: minimum slope used for Conduit 892
  WARNING 05: minimum slope used for Conduit 893
  WARNING 05: minimum slope used for Conduit 894
  WARNING 05: minimum slope used for Conduit 896
  WARNING 05: minimum slope used for Conduit 898
  WARNING 05: minimum slope used for Conduit 9
  WARNING 05: minimum slope used for Conduit 90
  WARNING 05: minimum slope used for Conduit 901
  WARNING 05: minimum slope used for Conduit 902
  WARNING 05: minimum slope used for Conduit 904
  WARNING 05: minimum slope used for Conduit 905
  WARNING 05: minimum slope used for Conduit 907
  WARNING 05: minimum slope used for Conduit 908
  WARNING 05: minimum slope used for Conduit 912
  WARNING 05: minimum slope used for Conduit 913
  WARNING 05: minimum slope used for Conduit 914
  WARNING 05: minimum slope used for Conduit 915
  WARNING 05: minimum slope used for Conduit 916
  WARNING 05: minimum slope used for Conduit 917
  WARNING 05: minimum slope used for Conduit 918
  WARNING 05: minimum slope used for Conduit 922
  WARNING 05: minimum slope used for Conduit 923
  WARNING 05: minimum slope used for Conduit 924
  WARNING 05: minimum slope used for Conduit 925
  WARNING 05: minimum slope used for Conduit 926
  WARNING 05: minimum slope used for Conduit 927
  WARNING 05: minimum slope used for Conduit 928
  WARNING 05: minimum slope used for Conduit 929
  WARNING 05: minimum slope used for Conduit 930
  WARNING 05: minimum slope used for Conduit 931
  WARNING 05: minimum slope used for Conduit 932
  WARNING 05: minimum slope used for Conduit 933
  WARNING 05: minimum slope used for Conduit 934
  WARNING 05: minimum slope used for Conduit 936
  WARNING 05: minimum slope used for Conduit 937
  WARNING 05: minimum slope used for Conduit 94
  WARNING 05: minimum slope used for Conduit 944
  WARNING 05: minimum slope used for Conduit 945
  WARNING 05: minimum slope used for Conduit 949
  WARNING 05: minimum slope used for Conduit 951
  WARNING 05: minimum slope used for Conduit 953
  WARNING 05: minimum slope used for Conduit 955
  WARNING 05: minimum slope used for Conduit 956
  WARNING 05: minimum slope used for Conduit 957
  WARNING 05: minimum slope used for Conduit 959
  WARNING 05: minimum slope used for Conduit 96
  WARNING 05: minimum slope used for Conduit 960
  WARNING 05: minimum slope used for Conduit 961
  WARNING 05: minimum slope used for Conduit 962
  WARNING 05: minimum slope used for Conduit 963
  WARNING 05: minimum slope used for Conduit 964
  WARNING 05: minimum slope used for Conduit 966
  WARNING 05: minimum slope used for Conduit 967
  WARNING 05: minimum slope used for Conduit 969
  WARNING 05: minimum slope used for Conduit 976
  WARNING 05: minimum slope used for Conduit 977
  WARNING 05: minimum slope used for Conduit 978
  WARNING 05: minimum slope used for Conduit 979
  WARNING 05: minimum slope used for Conduit 980
  WARNING 05: minimum slope used for Conduit 981
  WARNING 05: minimum slope used for Conduit 982
  WARNING 05: minimum slope used for Conduit 983
  WARNING 05: minimum slope used for Conduit 986
  WARNING 05: minimum slope used for Conduit 988
  WARNING 05: minimum slope used for Conduit 989
  WARNING 05: minimum slope used for Conduit 992
  WARNING 05: minimum slope used for Conduit 993
  WARNING 05: minimum slope used for Conduit 995
  WARNING 05: minimum slope used for Conduit 996
  WARNING 05: minimum slope used for Conduit 998
  WARNING 05: minimum slope used for Conduit 999
  WARNING 02: maximum depth increased for Node F1409034
  
  *************
  Element Count
  *************
  Number of rain gages ...... 8
  Number of subcatchments ... 869
  Number of nodes ........... 1133
  Number of links ........... 1145
  Number of pollutants ...... 1
  Number of land uses ....... 4
  
  
  *****************
  Pollutant Summary
  *****************
                               Ppt.      GW         Kdecay
  Name                 Units   Concen.   Concen.    1/days    CoPollutant
  -----------------------------------------------------------------------
  TSS                   MG/L      0.00      0.00      0.00
  
  
  ***************
  Landuse Summary
  ***************
                         Sweeping   Maximum      Last
  Name                   Interval   Removal     Swept
  ---------------------------------------------------
  Imperv                     0.00      0.00      0.00
  Trees                      0.00      0.00      0.00
  TurfGrass                  0.00      0.00      0.00
  Water                      0.00      0.00      0.00
  
  
  ****************
  Raingage Summary
  ****************
                                                      Data       Recording
  Name                 Data Source                    Type       Interval 
  ------------------------------------------------------------------------
  SCS_Type_II_2.95in_1yr SCS_Type_II_2.95in_1yr         INTENSITY    6 min.
  SCS_Type_II_3.58in_2yr SCS_Type_II_3.58in_2yr         INTENSITY    6 min.
  SCS_Type_II_4.63in_5yr SCS_Type_II_4.63in_5yr         INTENSITY    6 min.
  SCS_Type_II_5.52in_10yr SCS_Type_II_5.52in_10yr        INTENSITY    6 min.
  SCS_Type_II_6.83in_25yr SCS_Type_II_6.83in_25yr        INTENSITY    6 min.
  SCS_Type_II_7.97in_50yr SCS_Type_II_7.97in_50yr        INTENSITY    6 min.
  SCS_Type_II_9.22in_100yr SCS_Type_II_9.22in_100yr       INTENSITY    6 min.
  SCS~Type~II,~10-yr   Rain1                          VOLUME      15 min.
  
  
  ********************
  Subcatchment Summary
  ********************
  Name                       Area     Width   %Imperv    %Slope Rain Gage            Outlet              
  -----------------------------------------------------------------------------------------------------------
  S10                        0.29     88.55     90.50    2.9270 SCS_Type_II_2.95in_1yr E133475             
  S100                       0.20     65.63    100.00    1.1500 SCS_Type_II_2.95in_1yr F138001             
  S101                       0.04     13.42    100.00    0.7860 SCS_Type_II_2.95in_1yr F138007             
  S102                       0.03     22.48     84.79    2.0870 SCS_Type_II_2.95in_1yr F134230             
  S103                       0.09     64.45    100.00    0.7930 SCS_Type_II_2.95in_1yr F138004             
  S104                       0.17     80.44     74.63    3.1770 SCS_Type_II_2.95in_1yr F133428             
  S105                       0.24    100.42    100.00    0.7960 SCS_Type_II_2.95in_1yr F137013             
  S106                       0.10     45.84     23.12    4.2750 SCS_Type_II_2.95in_1yr UN12                
  S106_1                     0.61    149.87     65.95    3.7540 SCS_Type_II_2.95in_1yr E134261             
  S106_2                     0.69    118.94     29.74    4.0820 SCS_Type_II_2.95in_1yr E134261             
  S106_3                     0.32     84.62     87.58    4.3240 SCS_Type_II_2.95in_1yr E143355             
  S106_4                     0.53     76.54     96.05    2.5970 SCS_Type_II_2.95in_1yr E143355             
  S107                       0.38     87.21     51.35    5.5000 SCS_Type_II_2.95in_1yr E134262             
  S108                       0.08     40.63    100.00    1.0300 SCS_Type_II_2.95in_1yr F137014             
  S109                       0.24    115.01      6.49    1.8770 SCS_Type_II_2.95in_1yr F138015             
  S109_1                     0.73    353.50     33.09    5.8020 SCS_Type_II_2.95in_1yr F1306017            
  S109_2                     0.16    103.81     72.11    2.5970 SCS_Type_II_2.95in_1yr F1306016            
  S11                        0.59    153.11     97.38    3.1310 SCS_Type_II_2.95in_1yr F1306013            
  S110                       0.52    126.85     98.57    1.0730 SCS_Type_II_2.95in_1yr F137009             
  S111                       0.14     63.12    100.00    0.9470 SCS_Type_II_2.95in_1yr F137011             
  S112                       0.53     93.36     79.10    2.9860 SCS_Type_II_2.95in_1yr F147008             
  S112_3                     0.30     78.14     62.49    5.3130 SCS_Type_II_2.95in_1yr F1409017            
  S112_4                     0.18     93.09     59.62    3.1390 SCS_Type_II_2.95in_1yr F143640             
  S113                       0.60     70.03    100.00    2.9900 SCS_Type_II_2.95in_1yr E134219             
  S114                       0.05     35.43    100.00    0.7940 SCS_Type_II_2.95in_1yr F137010             
  S115                       0.55     97.78     88.48    1.5540 SCS_Type_II_2.95in_1yr F134112             
  S116                       0.23    101.80     98.16    0.6900 SCS_Type_II_2.95in_1yr E143754             
  S116_1                     0.26     81.30     48.15    1.6420 SCS_Type_II_2.95in_1yr F1306022            
  S116_2                     2.86    246.98     93.74    1.3170 SCS_Type_II_2.95in_1yr F133459             
  S116_3                     0.24     58.09     86.20    2.3150 SCS_Type_II_2.95in_1yr F133459             
  S116_4                     0.10     47.68     80.08    2.0640 SCS_Type_II_2.95in_1yr E1520537            
  S116_5                     0.09     43.06     86.73    3.0850 SCS_Type_II_2.95in_1yr E1520536            
  S117                       0.14     58.69     69.76    3.5850 SCS_Type_II_2.95in_1yr UN78                
  S118                       0.05     40.88     83.54    6.6160 SCS_Type_II_2.95in_1yr F1302002            
  S119                       0.27    125.23     54.09    2.0900 SCS_Type_II_2.95in_1yr F1306023            
  S12                        0.82    188.17     82.06    2.8560 SCS_Type_II_2.95in_1yr UN17                
  S120                       0.32    120.93    100.00    1.2900 SCS_Type_II_2.95in_1yr F138009             
  S121                       1.34    182.46     60.17    3.1890 SCS_Type_II_2.95in_1yr F143657             
  S121_1                     0.02     15.50    100.00    2.1110 SCS_Type_II_2.95in_1yr F143653             
  S121_3                     0.30    118.46     53.71    3.8130 SCS_Type_II_2.95in_1yr F143641             
  S122                       0.23     93.68     29.75    1.5910 SCS_Type_II_2.95in_1yr F134101             
  S122_1                     0.25     75.02     79.66    2.8940 SCS_Type_II_2.95in_1yr F13002000           
  S122_2                     0.19    125.03     89.41    3.3840 SCS_Type_II_2.95in_1yr E135220             
  S123                       0.12     96.37    100.00    1.2290 SCS_Type_II_2.95in_1yr F138002             
  S124                       0.02     20.68     99.00   10.4530 SCS_Type_II_2.95in_1yr UN44                
  S125                       0.58    153.09      6.86    3.3840 SCS_Type_II_2.95in_1yr F143623             
  S125_1                     0.14     71.38     73.77    2.1190 SCS_Type_II_2.95in_1yr F132690             
  S125_3                     0.35    126.94     68.99    2.4370 SCS_Type_II_2.95in_1yr F13269              
  S126                       1.31    209.40     52.30    2.5580 SCS_Type_II_2.95in_1yr UN32                
  S127                       0.21    132.94     98.28    1.3340 SCS_Type_II_2.95in_1yr E143751             
  S128                       0.28    112.67     97.91    1.9990 SCS_Type_II_2.95in_1yr E1437196            
  S128_2                     1.28    151.28     36.26    1.6370 SCS_Type_II_2.95in_1yr UN80                
  S129                       0.67    161.61     73.13    2.2000 SCS_Type_II_2.95in_1yr E143798             
  S129_2                     0.16     96.50     95.60    1.4530 SCS_Type_II_2.95in_1yr F138014             
  S13                        0.73    178.76     89.22    2.1660 SCS_Type_II_2.95in_1yr UN18                
  S130                       0.12     52.67     58.85    4.4120 SCS_Type_II_2.95in_1yr F144006             
  S130_1                     0.37     68.53     53.41    2.3610 SCS_Type_II_2.95in_1yr F147014             
  S130_2                     0.10     36.05     35.28    3.2770 SCS_Type_II_2.95in_1yr F147010             
  S131                       0.23    125.23     97.28    1.7950 SCS_Type_II_2.95in_1yr E143795             
  S132                       0.70    156.48     95.07    3.6070 SCS_Type_II_2.95in_1yr E134213             
  S133                       1.00    249.66     45.30    3.4960 SCS_Type_II_2.95in_1yr F134124             
  S134                       1.08    116.95     85.97    2.8750 SCS_Type_II_2.95in_1yr E143357             
  S134_1                     0.29    112.08      6.03    1.7500 SCS_Type_II_2.95in_1yr E134008             
  S134_2                     0.50    122.84     23.21    2.2760 SCS_Type_II_2.95in_1yr E134007             
  S135                       0.36     92.61     84.01    3.0380 SCS_Type_II_2.95in_1yr F1302001            
  S136                       0.42     92.17      6.35    3.4730 SCS_Type_II_2.95in_1yr F143573             
  S137                       0.08     44.68     38.38    3.4430 SCS_Type_II_2.95in_1yr E134263             
  S138                       0.75    142.07     99.66    1.0230 SCS_Type_II_2.95in_1yr E143791             
  S139                       0.09     33.18     95.25    2.5080 SCS_Type_II_2.95in_1yr E143787             
  S139_1                     0.23    127.70     70.81    1.7890 SCS_Type_II_2.95in_1yr F1306020            
  S14                        1.78    139.47     84.20    1.6430 SCS_Type_II_2.95in_1yr F133454             
  S140                       0.87    181.62     33.35    4.0380 SCS_Type_II_2.95in_1yr E143393             
  S141                       0.17    112.91      8.39    3.3820 SCS_Type_II_2.95in_1yr F143570             
  S141_1                     0.34    105.21     77.32    2.3110 SCS_Type_II_2.95in_1yr F13263              
  S142                       0.09     53.95     14.96    3.1100 SCS_Type_II_2.95in_1yr F143564             
  S142_1                     0.03     23.86     63.03    1.9570 SCS_Type_II_2.95in_1yr F143564             
  S142_3                     0.08     46.32      0.00    3.0970 SCS_Type_II_2.95in_1yr F143565             
  S143                       0.30    140.87     69.47    4.5330 SCS_Type_II_2.95in_1yr E134265             
  S144                       9.78    751.38      9.96    2.9490 SCS_Type_II_2.95in_1yr F134118             
  S145                       0.39    166.90     90.77    1.9690 SCS_Type_II_2.95in_1yr F138013             
  S146                       0.05     63.34     78.04    3.5810 SCS_Type_II_2.95in_1yr E134264             
  S147                       0.03     45.86     96.59    1.9570 SCS_Type_II_2.95in_1yr E139000             
  S148                       0.34    104.90     55.53    3.0130 SCS_Type_II_2.95in_1yr F143555             
  S148_1                     0.14     70.24     28.54    3.5820 SCS_Type_II_2.95in_1yr F143561             
  S148_3                     0.13     68.33     44.47    3.5170 SCS_Type_II_2.95in_1yr F143560             
  S148_4                     0.19     85.49     27.63    3.8820 SCS_Type_II_2.95in_1yr F143562             
  S148_5                     0.23     69.53     41.85    3.7850 SCS_Type_II_2.95in_1yr F143577             
  S149                       0.02     19.23    100.00    3.2100 SCS_Type_II_2.95in_1yr E143378             
  S15                        0.80    130.51     98.34    0.8500 SCS_Type_II_2.95in_1yr UN26                
  S15_1                      0.14     42.44    100.00    1.0520 SCS_Type_II_2.95in_1yr UN20                
  S15_2                      0.66    152.37     93.98    2.0450 SCS_Type_II_2.95in_1yr F133466             
  S150                       0.35    150.87     89.72    2.4590 SCS_Type_II_2.95in_1yr F138008             
  S151                       0.12     54.52     14.78    3.3080 SCS_Type_II_2.95in_1yr F143567             
  S151_4                     0.22     91.53    100.00    1.3140 SCS_Type_II_2.95in_1yr F1306019            
  S151_5                     0.26     76.43     81.06    1.8430 SCS_Type_II_2.95in_1yr F1306018            
  S152                       0.10     82.04    100.00    2.3640 SCS_Type_II_2.95in_1yr E143361             
  S153                       0.09     45.23     66.50    2.9280 SCS_Type_II_2.95in_1yr E143350             
  S153_1                     0.07     13.21      7.86    2.1400 SCS_Type_II_2.95in_1yr E133420             
  S153_2                     0.80    145.08     49.27    2.4010 SCS_Type_II_2.95in_1yr E133420             
  S154                       0.80    109.92     77.34    4.8120 SCS_Type_II_2.95in_1yr E144050             
  S154_2                     1.39    144.54      8.80    2.7330 SCS_Type_II_2.95in_1yr E133407             
  S154_3                     1.04    114.39     89.55    2.7390 SCS_Type_II_2.95in_1yr E133412             
  S154_4                     0.48    109.25     41.53    2.5020 SCS_Type_II_2.95in_1yr E133411             
  S155                       0.33     83.97     52.72    2.7070 SCS_Type_II_2.95in_1yr F134105             
  S156                       0.37     83.49     91.47    3.5470 SCS_Type_II_2.95in_1yr F147144             
  S156_1                     0.06     56.49      0.00    1.8550 SCS_Type_II_2.95in_1yr UN52                
  S156_2                     0.15     79.28     33.90    3.4700 SCS_Type_II_2.95in_1yr E133416             
  S157                       0.07     34.24    100.00    2.0430 SCS_Type_II_2.95in_1yr E1331939            
  S157_1                     0.22     54.11     38.74    3.8210 SCS_Type_II_2.95in_1yr E134290             
  S157_10                    0.24     54.43     97.43    3.4880 SCS_Type_II_2.95in_1yr E1331932            
  S157_2                     0.38    111.77     75.27    2.9420 SCS_Type_II_2.95in_1yr E134011             
  S157_4                     0.03     37.88     99.98    2.2860 SCS_Type_II_2.95in_1yr E1331936            
  S157_5                     1.33    218.93     90.10    2.1430 SCS_Type_II_2.95in_1yr E1331934            
  S157_6                     0.10     52.85     99.77    2.6170 SCS_Type_II_2.95in_1yr E1331940            
  S157_7                     0.26     60.33     98.61    3.5310 SCS_Type_II_2.95in_1yr E1331932            
  S157_9                     0.40     83.50     98.92    1.6700 SCS_Type_II_2.95in_1yr UN47                
  S158                       0.11     51.36     29.31    3.1240 SCS_Type_II_2.95in_1yr F133422             
  S159                       0.20     69.81     65.46    4.4820 SCS_Type_II_2.95in_1yr E134259             
  S16                        0.53    113.28     94.78    2.5410 SCS_Type_II_2.95in_1yr E133476             
  S160                       0.15     66.56     50.48    3.4440 SCS_Type_II_2.95in_1yr F143666             
  S160_2                     0.46    150.78     66.93    2.2980 SCS_Type_II_2.95in_1yr E134204             
  S161                       0.17    112.58     81.79    1.1960 SCS_Type_II_2.95in_1yr F134138             
  S162                       0.06     46.68     76.77    4.2560 SCS_Type_II_2.95in_1yr E143783             
  S162_1                     0.05     60.73     74.97    2.3290 SCS_Type_II_2.95in_1yr E145300             
  S163                       0.18     64.50     62.12    2.7190 SCS_Type_II_2.95in_1yr E134010             
  S164                       0.23     37.20     97.74    2.5940 SCS_Type_II_2.95in_1yr E1331933            
  S164_1                     0.05     41.92     72.82    6.3990 SCS_Type_II_2.95in_1yr E134258             
  S164_2                     0.03     28.11     75.48    4.7960 SCS_Type_II_2.95in_1yr E134256             
  S164_3                     2.08    281.56     59.06    3.2090 SCS_Type_II_2.95in_1yr E134274             
  S164_5                     0.60    195.73     57.86    5.7330 SCS_Type_II_2.95in_1yr E134254             
  S165                       0.02     37.63      0.00    4.4050 SCS_Type_II_2.95in_1yr E134009             
  S166                       0.77    152.06     14.92    3.7530 SCS_Type_II_2.95in_1yr F134128             
  S167                       0.14    109.38     46.16    6.2900 SCS_Type_II_2.95in_1yr F138012             
  S168                       0.33     79.71     61.82    2.6680 SCS_Type_II_2.95in_1yr F13262              
  S169                       0.07     60.26     44.88    3.4760 SCS_Type_II_2.95in_1yr E133415             
  S17                        0.15    137.99     92.57    2.6470 SCS_Type_II_2.95in_1yr E134203             
  S17_3                      0.16     68.53     93.97    2.6070 SCS_Type_II_2.95in_1yr E134208             
  S170                       0.04     35.70     76.26    3.3350 SCS_Type_II_2.95in_1yr E135000             
  S171                       0.15     76.46     96.36    2.7040 SCS_Type_II_2.95in_1yr F1306043            
  S171_1                     0.65    146.17     64.67    2.8910 SCS_Type_II_2.95in_1yr F13258              
  S171_2                     0.10     43.12     89.56    2.2460 SCS_Type_II_2.95in_1yr F13255              
  S172                       1.15    131.80     57.86    3.1510 SCS_Type_II_2.95in_1yr F13257              
  S172_1                     0.36     99.46     59.81    3.4140 SCS_Type_II_2.95in_1yr F13254              
  S172_2                     0.20     66.86     62.02    4.6510 SCS_Type_II_2.95in_1yr F13253              
  S172_4                     0.48     95.86     70.03    3.0920 SCS_Type_II_2.95in_1yr F13252              
  S173                       0.36     81.89     63.88    3.8080 SCS_Type_II_2.95in_1yr E134289             
  S174                       0.02     26.50     72.05    2.5270 SCS_Type_II_2.95in_1yr E133414             
  S175                       0.32     78.51     12.74    6.3780 SCS_Type_II_2.95in_1yr F135999             
  S176                       0.22     79.02     48.32    2.7090 SCS_Type_II_2.95in_1yr E134291             
  S177                       0.11     86.10     86.60    7.3270 SCS_Type_II_2.95in_1yr E1331931            
  S177_1                     0.42     73.83     90.82    2.8490 SCS_Type_II_2.95in_1yr E1331937            
  S177_3                     0.56    102.64     96.27    2.1350 SCS_Type_II_2.95in_1yr E1331932            
  S178                       0.29     94.90      0.00    5.4460 SCS_Type_II_2.95in_1yr F134137             
  S179                       0.06     43.53     64.26    2.4840 SCS_Type_II_2.95in_1yr F143549             
  S18                        0.20     62.08     89.53    1.8680 SCS_Type_II_2.95in_1yr UN19                
  S180                       2.71    309.58     88.90    2.9920 SCS_Type_II_2.95in_1yr E143775             
  S180_2                     0.31    116.02      0.68    7.2830 SCS_Type_II_2.95in_1yr F134140             
  S181                       0.64    154.40     86.93    1.0530 SCS_Type_II_2.95in_1yr UN76                
  S182                       0.23    334.64     32.03    4.8830 SCS_Type_II_2.95in_1yr F143552             
  S183                       0.02     25.14     14.57    7.2490 SCS_Type_II_2.95in_1yr E134260             
  S184                       0.03     29.83     56.17    3.9220 SCS_Type_II_2.95in_1yr E134275             
  S185                       1.35    131.20     59.38    3.3740 SCS_Type_II_2.95in_1yr F13256              
  S186                       1.07    147.58     86.29    4.2360 SCS_Type_II_2.95in_1yr E143336             
  S186_1                     0.30     93.89     99.24    2.2930 SCS_Type_II_2.95in_1yr E133399             
  S186_2                     0.77    158.96     59.88    3.4460 SCS_Type_II_2.95in_1yr E133398             
  S186_4                     0.50    106.74     73.66    3.5460 SCS_Type_II_2.95in_1yr E144018             
  S186_7                     0.08     36.89     99.21    3.3890 SCS_Type_II_2.95in_1yr E143336             
  S187                       2.16    289.11     43.95    2.7520 SCS_Type_II_2.95in_1yr F149004.2           
  S187_1                     1.28    123.08     47.39    2.9800 SCS_Type_II_2.95in_1yr E144272             
  S187_2                     1.18    153.42     94.00    1.6690 SCS_Type_II_2.95in_1yr E143381             
  S188                       0.24    149.05     36.10    6.2320 SCS_Type_II_2.95in_1yr E143971             
  S188_1                     0.21     80.23      0.00    6.1350 SCS_Type_II_2.95in_1yr F134146             
  S189                       0.35    135.46     64.74    3.3690 SCS_Type_II_2.95in_1yr F1409043            
  S189_1                     0.79    102.88     63.94    2.4890 SCS_Type_II_2.95in_1yr F1409045            
  S189_2                     1.38    156.72     31.39    2.5780 SCS_Type_II_2.95in_1yr F1409046            
  S19                        1.00    194.06     56.56    2.6730 SCS_Type_II_2.95in_1yr F143924             
  S19_1                      1.10    158.19     89.73    2.3300 SCS_Type_II_2.95in_1yr F1306011            
  S19_2                      0.67     83.55     86.81    1.8770 SCS_Type_II_2.95in_1yr F133434             
  S19_3                      0.22     97.99     79.53    2.3430 SCS_Type_II_2.95in_1yr F133429             
  S19_4                      0.61    170.38     81.26    2.6240 SCS_Type_II_2.95in_1yr F133431             
  S190                       0.82     93.83     65.86    5.5350 SCS_Type_II_2.95in_1yr E145006             
  S190_1                     0.13     77.68     83.77    4.7870 SCS_Type_II_2.95in_1yr E133404             
  S190_2                     0.47    142.60     75.47    3.8670 SCS_Type_II_2.95in_1yr E133402             
  S190_3                     1.62    200.53     77.87    5.3040 SCS_Type_II_2.95in_1yr T66                 
  S191                       0.85    148.49     96.00    2.3380 SCS_Type_II_2.95in_1yr E1331935            
  S192                       0.17    122.34      3.98    2.5130 SCS_Type_II_2.95in_1yr F136001             
  S193                       0.94    186.73     54.04    3.6080 SCS_Type_II_2.95in_1yr E134288             
  S194                       0.64    122.12     58.77    5.9630 SCS_Type_II_2.95in_1yr E1331924            
  S195                       0.18     99.22     82.27    1.8580 SCS_Type_II_2.95in_1yr F13261              
  S196                       0.16    106.73     43.91    5.1120 SCS_Type_II_2.95in_1yr E143964             
  S196_1                     1.06    205.66      8.47    2.5090 SCS_Type_II_2.95in_1yr F135013             
  S196_2                     0.17     70.25     32.78    4.5610 SCS_Type_II_2.95in_1yr E143274             
  S196_3                     0.24    125.67     10.86    3.6780 SCS_Type_II_2.95in_1yr F135014             
  S197                       0.35    113.04     63.83    5.0060 SCS_Type_II_2.95in_1yr F134148             
  S198                       1.02    264.27     58.91    3.8560 SCS_Type_II_2.95in_1yr E147013             
  S198_1                     0.12     82.85     49.70    3.4060 SCS_Type_II_2.95in_1yr F13259              
  S198_2                     0.19     85.71     87.85    2.4370 SCS_Type_II_2.95in_1yr F13260              
  S199                       0.25    119.99     28.12    2.2910 SCS_Type_II_2.95in_1yr F1306037            
  S2                         0.84     93.24     83.59    2.4010 SCS_Type_II_2.95in_1yr E133477             
  S20                        0.93    203.92     86.67    1.9230 SCS_Type_II_2.95in_1yr E133470             
  S200                       0.16     76.39     65.33    2.8940 SCS_Type_II_2.95in_1yr E144252             
  S200_1                     0.10     57.67     57.91    8.0280 SCS_Type_II_2.95in_1yr E133385             
  S201                       0.41    124.07     55.77    3.8800 SCS_Type_II_2.95in_1yr F144005             
  S202                       0.47    137.20     66.30    2.3930 SCS_Type_II_2.95in_1yr E145064             
  S202_3                     1.44    266.10      3.24    2.3480 SCS_Type_II_2.95in_1yr F143572             
  S202_5                     0.40     77.08     99.42    0.6010 SCS_Type_II_2.95in_1yr UN73                
  S203                       0.06     49.66     28.60    2.0810 SCS_Type_II_2.95in_1yr F136002             
  S204                       0.43    168.22     59.92    3.2960 SCS_Type_II_2.95in_1yr F1306035            
  S205                       0.15     84.60      1.26    6.4520 SCS_Type_II_2.95in_1yr E1437164            
  S205_1                     0.37    132.90     61.24    2.9210 SCS_Type_II_2.95in_1yr F1306036            
  S205_2                     0.09     40.84     64.44    2.7650 SCS_Type_II_2.95in_1yr F1306040            
  S206                       0.19     94.94     78.89    2.0010 SCS_Type_II_2.95in_1yr E145062             
  S207                       0.20    158.74      7.45    3.7460 SCS_Type_II_2.95in_1yr E147008             
  S208                       0.02     20.90     77.21    1.6730 SCS_Type_II_2.95in_1yr E1331929            
  S209                       0.81    102.12     73.06    4.0920 SCS_Type_II_2.95in_1yr F143669             
  S209_2                     0.91    124.86     54.18    5.5370 SCS_Type_II_2.95in_1yr F143661             
  S21                        0.59    120.89     97.23    1.8490 SCS_Type_II_2.95in_1yr F133462             
  S210                       0.38     66.90     58.87    6.7390 SCS_Type_II_2.95in_1yr UN3                 
  S210_1                     0.16     69.44     99.24    3.3160 SCS_Type_II_2.95in_1yr E1437195            
  S210_2                     0.44    108.39     98.36    2.0250 SCS_Type_II_2.95in_1yr E1331925            
  S210_4                     0.06     48.74     81.34    3.8840 SCS_Type_II_2.95in_1yr E1437192            
  S210_5                     0.08     34.73     18.71    6.0210 SCS_Type_II_2.95in_1yr E1437193            
  S211                       0.53    161.20     77.30    4.3500 SCS_Type_II_2.95in_1yr F1306034            
  S212                       0.19     40.23     89.81    3.8050 SCS_Type_II_2.95in_1yr E143736             
  S212_1                     0.09     67.97     72.15    3.5010 SCS_Type_II_2.95in_1yr F1306042            
  S213                       2.94    231.01     50.41    3.5780 SCS_Type_II_2.95in_1yr F143668             
  S213_1                     0.07     53.94     66.43    3.5410 SCS_Type_II_2.95in_1yr E134287             
  S213_2                     1.12    263.93     59.75    3.3640 SCS_Type_II_2.95in_1yr E134286             
  S214                       0.54    157.60     57.74    2.8920 SCS_Type_II_2.95in_1yr F13250              
  S215                       0.83    181.84     37.55    3.4630 SCS_Type_II_2.95in_1yr E133394             
  S216                       0.58    186.80     86.96    1.6730 SCS_Type_II_2.95in_1yr F143681.09          
  S216_1                     0.44    100.24     64.08    3.2670 SCS_Type_II_2.95in_1yr E144283             
  S216_10                    0.25     67.27     99.73    1.5040 SCS_Type_II_2.95in_1yr F143680             
  S216_2                     0.09     59.84     46.38    4.5110 SCS_Type_II_2.95in_1yr E134285             
  S216_3                     0.42    114.25     63.69    3.7210 SCS_Type_II_2.95in_1yr E134280             
  S216_4                     0.20     38.00     39.32    3.0380 SCS_Type_II_2.95in_1yr F143672             
  S216_5                     1.22    223.60     59.85    3.4500 SCS_Type_II_2.95in_1yr E134281             
  S216_6                     0.66    166.03     60.75    3.7670 SCS_Type_II_2.95in_1yr E134250             
  S216_7                     0.01     13.51     55.70   16.4290 SCS_Type_II_2.95in_1yr E134250             
  S216_8                     0.27    127.15     99.97    0.9660 SCS_Type_II_2.95in_1yr F143689.13          
  S216_9                     0.19     82.81     99.92    1.6400 SCS_Type_II_2.95in_1yr F143679             
  S217                       0.13     47.04     74.25    5.0480 SCS_Type_II_2.95in_1yr F1306033            
  S218                       0.82    139.59     36.26    3.9070 SCS_Type_II_2.95in_1yr F143681             
  S218_1                     0.48    181.44     70.34    2.5110 SCS_Type_II_2.95in_1yr F143683             
  S219                       0.86    143.05     75.12    0.9050 SCS_Type_II_2.95in_1yr UN30                
  S22                        0.03     32.56     76.51    5.9350 SCS_Type_II_2.95in_1yr F13299              
  S220                       0.61    216.28     46.25    2.2920 SCS_Type_II_2.95in_1yr F1306044            
  S221                       5.62    441.29      8.68    3.0300 SCS_Type_II_2.95in_1yr F143545             
  S222                       0.56    158.22     56.60    3.5740 SCS_Type_II_2.95in_1yr E134278             
  S223                       1.56    216.70     56.05    2.7150 SCS_Type_II_2.95in_1yr F1409048            
  S224                       1.03    144.19     96.95    2.0080 SCS_Type_II_2.95in_1yr E143380             
  S225                       0.37     72.01     69.78    4.8490 SCS_Type_II_2.95in_1yr E145010             
  S225_1                     0.19     59.70     90.43    1.7740 SCS_Type_II_2.95in_1yr E143391             
  S225_2                     4.19    392.26      8.16    2.5950 SCS_Type_II_2.95in_1yr E143392             
  S226_2                     1.02    155.05     11.27    2.7600 SCS_Type_II_2.95in_1yr F143574             
  S227                       0.76    184.68     76.08    2.8410 SCS_Type_II_2.95in_1yr F1306041            
  S228_1                     0.11     35.68     54.54    1.8310 SCS_Type_II_2.95in_1yr F1409042            
  S228_3                     0.37    116.12     51.41    3.1550 SCS_Type_II_2.95in_1yr F1409041            
  S228_4                     0.70    191.02     69.38    3.2310 SCS_Type_II_2.95in_1yr F1409041            
  S229                       0.56     62.04     92.99    3.1220 SCS_Type_II_2.95in_1yr E145007             
  S229_1                     0.12     59.89    100.00    3.3840 SCS_Type_II_2.95in_1yr E133397             
  S229_2                     0.13     69.00     10.02    5.6470 SCS_Type_II_2.95in_1yr E133395             
  S229_6                     0.02     23.25     33.76   15.1630 SCS_Type_II_2.95in_1yr UN58                
  S229_7                     0.45     65.14     70.02    4.7580 SCS_Type_II_2.95in_1yr UN4                 
  S23                        0.64    179.85     91.75    2.4380 SCS_Type_II_2.95in_1yr E133482             
  S230                       0.34     59.40     93.02    4.4820 SCS_Type_II_2.95in_1yr E145009             
  S231                       0.57    165.97     72.98    4.4460 SCS_Type_II_2.95in_1yr F13251              
  S232                       0.28    141.94     70.50    2.2960 SCS_Type_II_2.95in_1yr F143689.09          
  S232_2                     0.45    110.36     93.76    2.5550 SCS_Type_II_2.95in_1yr E143375             
  S233                       0.86    186.77     57.40    2.8930 SCS_Type_II_2.95in_1yr F143688             
  S233_1                     1.91    248.96     61.11    3.1760 SCS_Type_II_2.95in_1yr F143674             
  S233_2                     0.01      6.49     84.07    6.4090 SCS_Type_II_2.95in_1yr F143677             
  S233_3                     0.15     51.99     33.66    3.9610 SCS_Type_II_2.95in_1yr F143676             
  S234                       0.16     63.27     58.97    3.4120 SCS_Type_II_2.95in_1yr E134280             
  S235                       0.93    192.28     92.32    3.0740 SCS_Type_II_2.95in_1yr E143330             
  S236_3                     0.12     52.64      2.86    2.9440 SCS_Type_II_2.95in_1yr F143569             
  S237                       0.39    102.16     39.51    2.5380 SCS_Type_II_2.95in_1yr F147004             
  S238                       0.41     63.94     50.69    3.8600 SCS_Type_II_2.95in_1yr E144272             
  S24                        0.09     46.49     84.61    3.0230 SCS_Type_II_2.95in_1yr F13298              
  S241                       1.07    185.55      2.79    1.7260 SCS_Type_II_2.95in_1yr F143689.12          
  S241_1                     0.32     86.51     23.83    2.5420 SCS_Type_II_2.95in_1yr F143681.02          
  S241_2                     0.37    106.86     66.88    4.8820 SCS_Type_II_2.95in_1yr E144277             
  S241_4                     0.54    166.68      5.50    3.0270 SCS_Type_II_2.95in_1yr F143681.04          
  S242                       0.30    150.49     68.13    2.5680 SCS_Type_II_2.95in_1yr F143689.05          
  S246                       6.51   1183.27      5.95    6.1580 SCS_Type_II_2.95in_1yr S1                  
  S246_2                     0.50    123.05     79.15    3.4680 SCS_Type_II_2.95in_1yr F1409025            
  S246_5                     0.35     95.24     60.78    3.7100 SCS_Type_II_2.95in_1yr F1409024            
  S246_6                     0.10     53.39     68.08    3.1130 SCS_Type_II_2.95in_1yr F1409023            
  S246_7                     0.13     74.83     80.57    3.5910 SCS_Type_II_2.95in_1yr F1409022            
  S246_8                     0.41    126.86     79.15    3.8220 SCS_Type_II_2.95in_1yr F1409021            
  S247                       0.74    157.53     49.23    4.3680 SCS_Type_II_2.95in_1yr F1409039            
  S248                       0.02     26.08     61.98    1.9770 SCS_Type_II_2.95in_1yr E14160              
  S249_1                     0.42    122.08     60.07    3.5220 SCS_Type_II_2.95in_1yr F143700             
  S249_2                     0.31    136.08     39.63    2.4820 SCS_Type_II_2.95in_1yr F143702             
  S25                        0.22     67.51     56.94    3.2230 SCS_Type_II_2.95in_1yr F13289              
  S250                       0.10     74.78     79.48    5.1390 SCS_Type_II_2.95in_1yr E144004             
  S250_1                     0.15     50.11     63.80    2.5000 SCS_Type_II_2.95in_1yr E143332             
  S250_4                     0.03     26.73     97.22    2.3690 SCS_Type_II_2.95in_1yr E144032             
  S253                       0.61    106.22     27.09    1.6590 SCS_Type_II_2.95in_1yr F143689.10          
  S253_1                     4.70    502.49     50.76    3.4980 SCS_Type_II_2.95in_1yr E143322             
  S253_2                     0.51    101.81     44.23    3.5670 SCS_Type_II_2.95in_1yr E1437178            
  S254                       0.23     72.75     88.38    4.0290 SCS_Type_II_2.95in_1yr E143324             
  S254_1                     0.28     94.75     95.41    1.6160 SCS_Type_II_2.95in_1yr E143390             
  S254_2                     0.09     47.85     40.95    6.0190 SCS_Type_II_2.95in_1yr E143386             
  S256                       0.06     35.60     75.05    3.9730 SCS_Type_II_2.95in_1yr F1409037            
  S257                       0.93    142.95      2.78    3.7460 SCS_Type_II_2.95in_1yr F143588             
  S257_1                     0.12    107.27     22.55    2.6260 SCS_Type_II_2.95in_1yr F143585             
  S257_3                     0.21     83.79      0.00    4.0690 SCS_Type_II_2.95in_1yr F143589             
  S258                       0.17     75.97     52.29    4.9630 SCS_Type_II_2.95in_1yr F143704             
  S258_3                     0.45    117.16     40.11    1.9050 SCS_Type_II_2.95in_1yr F143703             
  S259_1                     0.13     84.92      0.00    3.0080 SCS_Type_II_2.95in_1yr F149000.01          
  S259_2                     0.19     87.76     34.33    4.1600 SCS_Type_II_2.95in_1yr F149000             
  S26                        0.61    132.00     82.05    2.9570 SCS_Type_II_2.95in_1yr E134207             
  S26_1                      0.17     83.22     73.69    3.7110 SCS_Type_II_2.95in_1yr F133448             
  S26_2                      0.52    127.28     90.84    2.0740 SCS_Type_II_2.95in_1yr F1306012            
  S260                       0.31     80.31     66.72    2.7660 SCS_Type_II_2.95in_1yr E1437173            
  S260_1                     0.27     84.17     76.02    3.8500 SCS_Type_II_2.95in_1yr E143372             
  S260_2                     0.57    191.78     90.64    3.1820 SCS_Type_II_2.95in_1yr E143369             
  S262                       0.26    144.01     70.84    2.5760 SCS_Type_II_2.95in_1yr F143689.03          
  S262_1                     0.72    127.86     86.85    2.9730 SCS_Type_II_2.95in_1yr E143383             
  S262_2                     0.04     23.08     96.14    2.5120 SCS_Type_II_2.95in_1yr E143384             
  S263_1                     0.47    130.99      0.00    3.7320 SCS_Type_II_2.95in_1yr F143558             
  S263_4                     0.23     82.89     21.72    4.2150 SCS_Type_II_2.95in_1yr F143557             
  S264                       0.72    179.41      7.27    2.5620 SCS_Type_II_2.95in_1yr F143681.07          
  S264_2                     1.93    228.35     58.82    2.7720 SCS_Type_II_2.95in_1yr F143692             
  S265                       0.48    127.22     64.41    3.5280 SCS_Type_II_2.95in_1yr E143308             
  S266                       1.40    297.36      6.68    2.8210 SCS_Type_II_2.95in_1yr F143587             
  S267                       0.78    189.48     24.61    2.5210 SCS_Type_II_2.95in_1yr F149002.01          
  S268                       0.36    124.19     77.86    3.2330 SCS_Type_II_2.95in_1yr E1437176            
  S269                       0.09     60.68     64.66    3.5030 SCS_Type_II_2.95in_1yr E143306             
  S269_1                     0.30     69.80     63.22    3.6570 SCS_Type_II_2.95in_1yr E143302             
  S269_2                     2.62    373.38     74.13    4.4700 SCS_Type_II_2.95in_1yr E143300             
  S27                        0.15     82.03     73.14    2.0130 SCS_Type_II_2.95in_1yr F13296              
  S27_1                      0.17     52.69    100.00    2.1250 SCS_Type_II_2.95in_1yr F1306046            
  S27_3                      0.26     90.53     84.39    2.5100 SCS_Type_II_2.95in_1yr F13297              
  S270                       1.95    254.50     66.67    2.9800 SCS_Type_II_2.95in_1yr F143694             
  S270_2                     0.02     20.41     97.34    2.7830 SCS_Type_II_2.95in_1yr E143377             
  S271                       0.02     39.02    100.00    2.5310 SCS_Type_II_2.95in_1yr E143307             
  S272                       0.95    174.91     42.01    2.0450 SCS_Type_II_2.95in_1yr F143706             
  S273                       0.37    110.82     37.40    2.6670 SCS_Type_II_2.95in_1yr F149003             
  S274                       0.37     90.80      4.25    1.4000 SCS_Type_II_2.95in_1yr F143689.08          
  S274_1                     0.08     61.82     89.67    3.3700 SCS_Type_II_2.95in_1yr E143373             
  S274_2                     0.01     18.48     62.20    1.5850 SCS_Type_II_2.95in_1yr E143374             
  S275                       0.44    119.20     49.51    3.2360 SCS_Type_II_2.95in_1yr F143701             
  S276                       0.39     78.78     34.59    1.5920 SCS_Type_II_2.95in_1yr F143689.04          
  S277_1                     0.22     98.61      7.08    3.8260 SCS_Type_II_2.95in_1yr F143584             
  S277_2                     0.06     43.23     30.40    2.8650 SCS_Type_II_2.95in_1yr F143579             
  S277_5                     0.14     68.49      0.00    3.6450 SCS_Type_II_2.95in_1yr F143582             
  S277_7                     0.21     66.10      8.22    3.9060 SCS_Type_II_2.95in_1yr F143580             
  S279_2                     0.43    106.21     97.41    3.0040 SCS_Type_II_2.95in_1yr E143356             
  S28                        0.57    166.99     91.37    2.0510 SCS_Type_II_2.95in_1yr F143900             
  S28_2                      0.61    146.43    100.00    1.3740 SCS_Type_II_2.95in_1yr F133467             
  S28_3                      0.10     52.40     97.26    2.0450 SCS_Type_II_2.95in_1yr F133465             
  S281                       0.46    115.66     91.82    3.2180 SCS_Type_II_2.95in_1yr E143352             
  S282_2                     0.64    142.18     11.28    2.4940 SCS_Type_II_2.95in_1yr F143532             
  S283                       0.52    111.97     32.04    4.0890 SCS_Type_II_2.95in_1yr E143366             
  S283_4                     0.37     92.99      2.49    4.0990 SCS_Type_II_2.95in_1yr E143367             
  S284                       0.05     30.49     35.98    7.2070 SCS_Type_II_2.95in_1yr E143368             
  S285_1                     0.33     78.26     82.69    3.3150 SCS_Type_II_2.95in_1yr F1409032            
  S285_3                     0.26     83.22     77.79    2.9090 SCS_Type_II_2.95in_1yr F1409031            
  S285_4                     0.24     61.77     63.91    3.4470 SCS_Type_II_2.95in_1yr F1409031            
  S286_2                     0.46    165.32     31.32    3.4060 SCS_Type_II_2.95in_1yr F143550             
  S287                       0.34     77.79     72.27    2.3570 SCS_Type_II_2.95in_1yr F1409027            
  S288                       0.30    121.86     92.04    2.6330 SCS_Type_II_2.95in_1yr E1437191            
  S289_2                     1.10    110.28     33.05    2.0680 SCS_Type_II_2.95in_1yr F149004.5           
  S289_5                     1.74    218.06     52.04    2.6390 SCS_Type_II_2.95in_1yr F149004.4           
  S29                        0.31    126.93     65.09    2.7590 SCS_Type_II_2.95in_1yr UN23                
  S29_1                      0.20     76.32     10.36    1.8000 SCS_Type_II_2.95in_1yr E133481             
  S29_2                      3.45    266.61     62.89    2.5650 SCS_Type_II_2.95in_1yr E133480             
  S29_4                      0.18     73.34     17.79    1.9360 SCS_Type_II_2.95in_1yr 05-0088             
  S29_7                      0.16     48.51      8.06    1.6400 SCS_Type_II_2.95in_1yr 05-0088             
  S290                       0.38    135.11     65.72    2.6410 SCS_Type_II_2.95in_1yr F143707             
  S291_2                     0.62    112.46     53.36    2.7830 SCS_Type_II_2.95in_1yr F143710             
  S293_2                     0.72    137.71      1.06    2.7700 SCS_Type_II_2.95in_1yr F143681.04          
  S293_3                     0.31    131.95      0.00    1.9330 SCS_Type_II_2.95in_1yr F143681.04          
  S294                       0.16     63.71     94.02    1.8610 SCS_Type_II_2.95in_1yr E143353             
  S295_1                     0.42    114.94     95.53    2.5230 SCS_Type_II_2.95in_1yr E143358             
  S296_3                     0.13     65.26     32.47    3.6990 SCS_Type_II_2.95in_1yr F143602             
  S296_4                     0.24     91.64     36.15    4.7350 SCS_Type_II_2.95in_1yr F143547             
  S299                       0.12     59.04    100.00    2.2710 SCS_Type_II_2.95in_1yr E143364             
  S3                         0.42     93.65     93.58    1.6300 SCS_Type_II_2.95in_1yr F133469             
  S3_2                       0.51    136.70     92.62    2.7000 SCS_Type_II_2.95in_1yr E133465             
  S3_3                       2.48    198.29     90.55    2.0890 SCS_Type_II_2.95in_1yr F133468             
  S30                        0.26     99.85     59.25    2.4100 SCS_Type_II_2.95in_1yr E133487             
  S300_2                     0.05     39.09      0.00    4.5320 SCS_Type_II_2.95in_1yr F143598             
  S300_3                     0.49    118.48      8.76    5.2000 SCS_Type_II_2.95in_1yr F143536             
  S302_1                     0.18     52.35     42.32    3.0810 SCS_Type_II_2.95in_1yr F143542             
  S303                       0.03     27.30     15.29    6.9860 SCS_Type_II_2.95in_1yr F143546             
  S304_2                     0.15     74.97      0.57    3.3650 SCS_Type_II_2.95in_1yr F143583             
  S305                       0.32    122.38     73.03    3.0440 SCS_Type_II_2.95in_1yr F1409028            
  S306                       0.27     93.56     96.80    2.0660 SCS_Type_II_2.95in_1yr E143991             
  S308                       0.50    117.22     72.44    3.9800 SCS_Type_II_2.95in_1yr E1437177            
  S309                       1.03    223.19     20.57    3.8830 SCS_Type_II_2.95in_1yr F143519             
  S31                        2.42    315.90     92.88    1.8170 SCS_Type_II_2.95in_1yr F13288              
  S310_2                     0.04     47.09     21.18    2.6920 SCS_Type_II_2.95in_1yr F143590             
  S310_3                     0.27     91.35      0.00    3.5520 SCS_Type_II_2.95in_1yr F143593             
  S313                       0.04     40.31     99.05    3.3640 SCS_Type_II_2.95in_1yr E143349             
  S313_1                     0.17     55.37     96.25    2.8800 SCS_Type_II_2.95in_1yr E143348             
  S313_4                     0.07     38.32      7.21    8.5760 SCS_Type_II_2.95in_1yr E147137             
  S314_1                     0.06     60.46     37.06    4.9100 SCS_Type_II_2.95in_1yr F143548             
  S315                       0.05     25.25    100.00    2.7290 SCS_Type_II_2.95in_1yr E143362             
  S317_1                     1.45    224.24      1.38    1.6040 SCS_Type_II_2.95in_1yr F143681.06          
  S318                       0.68    148.66     16.32    4.6220 SCS_Type_II_2.95in_1yr E143360             
  S32                        0.70    113.85     51.62    2.4320 SCS_Type_II_2.95in_1yr F13264              
  S32_1                      0.81    195.63     77.17    2.4370 SCS_Type_II_2.95in_1yr E133473             
  S32_2                      0.53    110.23     90.03    2.2200 SCS_Type_II_2.95in_1yr E133473             
  S320                       0.09     50.77      0.00    3.0190 SCS_Type_II_2.95in_1yr F143539             
  S322                       0.32     73.81     90.17    2.2860 SCS_Type_II_2.95in_1yr E143326             
  S323                       0.15     64.69     58.54    6.7490 SCS_Type_II_2.95in_1yr E143299             
  S324_1                     2.62    284.01      4.28    3.5020 SCS_Type_II_2.95in_1yr F143622             
  S325                       2.42    208.03     85.08    3.1350 SCS_Type_II_2.95in_1yr E143327             
  S326                       0.03     35.74      0.00    2.6720 SCS_Type_II_2.95in_1yr F143540             
  S327                       0.12     82.53     34.54    4.5650 SCS_Type_II_2.95in_1yr F143617             
  S328_1                     0.19     44.67     58.10    3.1580 SCS_Type_II_2.95in_1yr F143654             
  S328_3                     0.95    169.44     65.43    3.3030 SCS_Type_II_2.95in_1yr F147006             
  S33                        0.07     49.72     99.97    4.4290 SCS_Type_II_2.95in_1yr E133473             
  S330                       0.83    136.00     75.54    4.0560 SCS_Type_II_2.95in_1yr F147016             
  S331                       0.14     97.30     30.13    2.1920 SCS_Type_II_2.95in_1yr F143538             
  S333                       0.04     53.52     88.55    3.1220 SCS_Type_II_2.95in_1yr E143354             
  S334                       0.05     24.81     97.56    2.9430 SCS_Type_II_2.95in_1yr E144009             
  S334_2                     0.18     41.51     94.75    3.5030 SCS_Type_II_2.95in_1yr E144008             
  S337                       0.65    138.21     62.71    3.3800 SCS_Type_II_2.95in_1yr F1409035            
  S338                       0.12     64.98     76.41    2.0810 SCS_Type_II_2.95in_1yr E143978             
[...]
  732                         0.14      0.14      0.19      0.01         0.01
  733                         0.66      0.66      0.75      0.01         0.01
  734                         0.74      0.74      0.81      0.01         0.01
  735                         0.51      0.51      1.13      0.01         0.01
  736                         0.96      0.96      3.37      0.01         0.01
  737                         0.53      0.53      0.55      0.01         0.01
  738                         0.70      0.70      0.74      0.01         0.01
  739                         0.49      0.49      0.53      0.01         0.01
  74                          0.17      0.17      0.21      0.01         0.01
  740                         0.47      0.47      0.51      0.01         0.01
  741                         0.16      0.16      0.16      0.01         0.01
  742                         0.14      0.14      0.15      0.01         0.01
  743                         0.15      0.15      0.16      0.01         0.01
  748                         0.01      0.01      0.21      0.01         0.01
  75                          0.45      0.45      3.15      0.01         0.01
  751                         0.29      0.29      0.29      0.01         0.01
  752                         0.24      0.24      0.28      0.01         0.01
  753                         0.29      0.29      0.29      0.01         0.01
  754                         0.01      0.01      0.04      0.01         0.01
  755                         0.01      0.01      0.23      0.01         0.01
  757                         2.98      2.98     44.50      0.22         0.39
  759                         0.97      0.97     37.61      0.01         0.01
  76                          1.03      1.03      1.06      0.01         0.01
  760                         0.11      0.11     44.68      0.01         0.01
  761                         0.42      0.42      0.53      0.01         0.01
  762                         0.41      0.41      0.53      0.01         0.01
  763                         0.31      0.31      0.47      0.01         0.01
  764                         0.67      0.67      0.97      0.01         0.01
  765                         0.47      0.47      0.66      0.01         0.01
  766                         0.01      0.01      0.63      0.01         0.01
  767                         0.01      0.01      0.41      0.01         0.01
  768                         0.01      0.01     36.20      0.01         0.01
  769                         0.42      0.42      0.56      0.01         0.01
  77                          2.00      2.00      5.32      0.01         0.01
  770                         0.01      0.01     44.20      0.01         0.01
  773                         0.01      0.01     44.49      0.30         0.01
  774                         0.63      0.63      0.79      0.01         0.01
  775                        32.51     32.58     37.61      0.24         0.01
  776                         0.62      0.62      0.63      0.01         0.01
  779                         0.01      0.01     41.26      0.01         0.01
  78                          2.39      2.39      6.38      0.01         0.01
  780                         0.62      0.62      0.63      0.01         0.01
  781                         0.63      0.63      0.68      0.01         0.01
  783                         0.01      0.01      0.16      0.01         0.01
  785                         0.01      0.11      0.01      0.01         0.01
  786                         0.23      0.23      0.53      0.01         0.01
  787                         0.16      0.18      0.16      0.18         0.16
  788                         0.13      0.13      0.18      0.01         0.01
  789                         0.01      0.11      0.01      0.02         0.01
  79                          0.71      0.71     45.07      0.01         0.01
  790                         0.45      0.45      0.49      0.01         0.01
  791                         0.59      0.59      0.60      0.01         0.01
  792                         0.54      0.54      0.66      0.01         0.01
  793                         0.40      0.40      0.66      0.01         0.01
  794                         0.27      0.27      0.29      0.01         0.01
  795                         0.16      0.16      0.51      0.01         0.01
  796                         0.12      0.12      0.20      0.01         0.01
  797                         0.23      0.23      0.63      0.01         0.01
  798                         0.10      0.10      0.12      0.01         0.01
  799                         0.24      0.26      0.25      0.01         0.01
  8                           0.23      0.28      0.23      0.01         0.01
  80                          5.09      5.09      6.99      0.01         0.01
  800                         0.01      0.01      0.20      0.01         0.01
  802                         0.40      0.41      0.42      0.01         0.01
  803                         0.01      0.01      0.39      0.01         0.01
  804                         0.42      0.42      0.54      0.01         0.01
  805                         0.01      0.01      0.47      0.01         0.01
  806                         0.32      0.32      0.37      0.01         0.01
  807                         0.03      0.39      0.03      0.43         0.03
  808                         0.32      0.32      0.35      0.01         0.01
  809                         0.23      0.24      0.23      0.01         0.01
  81                          1.21      1.21      8.45      0.01         0.01
  810                         0.23      0.23      0.26      0.01         0.01
  812                         0.26      0.26      0.27      0.01         0.01
  813                         0.51      0.51      0.67      0.01         0.01
  814                         0.29      0.29      0.30      0.01         0.01
  815                         0.30      0.30      0.32      0.01         0.01
  816                         0.39      0.39      0.40      0.01         0.01
  817                         0.50      0.54      0.50      0.01         0.01
  818                         0.32      0.32      0.65      0.01         0.01
  819                         0.39      0.39      0.39      0.01         0.01
  82                          0.01      0.01      0.15      0.01         0.01
  820                         0.41      0.41      0.46      0.01         0.01
  821                         0.31      0.31      0.70      0.01         0.01
  822                         0.45      0.50      0.45      0.01         0.01
  823                         0.28      0.28      0.70      0.01         0.01
  824                         0.37      0.39      0.37      0.01         0.01
  825                         0.08      0.08      0.72      0.01         0.01
  826                         0.08      0.08      0.72      0.01         0.01
  827                         0.33      0.33      0.45      0.01         0.01
  828                         0.35      0.35      0.35      0.01         0.01
  829                         0.31      0.31      0.35      0.01         0.01
  83                          0.86      0.86      0.86      0.01         0.01
  830                         0.01      0.01      0.30      0.01         0.01
  831                         0.01      0.01      0.12      0.01         0.01
  832                         0.22      0.22      0.24      0.01         0.01
  833                         0.22      0.22      0.33      0.01         0.01
  834                         0.24      0.24      0.33      0.38         0.01
  835                         0.09      0.09      0.16      0.01         0.01
  836                         0.01      0.01      0.05      0.01         0.01
  837                         0.30      0.30      0.30      0.01         0.01
  839                         0.01      0.01      0.09      0.01         0.01
  84                          0.46      0.46      0.48      0.01         0.01
  840                         0.01      0.01      0.01      0.01         0.01
  841                         0.01      0.01      0.16      0.01         0.01
  842                         0.01      0.01      0.01      0.01         0.01
  843                         0.01      0.01      0.16      0.01         0.01
  844                         0.17      0.17      0.19      0.01         0.01
  845                         0.15      0.15      0.17      0.01         0.01
  846                         0.01      0.12      0.01      0.01         0.01
  847                         0.12      0.15      0.12      0.01         0.01
  848                         0.13      0.13      0.26      0.01         0.01
  849                         0.41      0.41      0.49      0.01         0.01
  85                          1.54      1.54      1.55      0.01         0.01
  850                         0.14      0.14      0.17      0.01         0.01
  851                         0.09      0.09      0.36      0.01         0.01
  852                         0.09      0.09      0.15      0.01         0.01
  853                         0.49      0.49      0.72      0.01         0.01
  854                         0.15      0.15      0.72      0.01         0.01
  855                         0.24      0.24      0.26      0.01         0.01
  856                         0.07      0.07      0.09      0.01         0.01
  857                         0.41      0.42      0.41      0.01         0.01
  858                         0.36      0.36      0.40      0.01         0.01
  859                         0.58      0.58      0.68      0.01         0.01
  86                          1.47      1.47      8.51      0.01         0.01
  860                         0.66      0.66     10.05      0.01         0.01
  861                         0.29      0.29      0.66      0.01         0.01
  865                         0.01      0.01      0.07      0.01         0.01
  866                         0.01      0.06      0.01      0.01         0.01
  867                         0.01      0.01      0.30      0.01         0.01
  87                          1.55      1.55      1.56      0.01         0.17
  871                         0.01      0.01      0.16      0.01         0.01
  873                         0.01      0.01      0.38      0.01         0.01
  874                         0.01      0.01      0.18      0.01         0.01
  875                         0.19      0.19      0.19      0.01         0.01
  876                         0.26      0.26      0.30      0.04         0.04
  877                         0.24      0.24      0.30      0.01         0.01
  878                         0.21      0.21      0.22      0.01         0.01
  879                         0.22      0.22      0.24      0.01         0.01
  88                          0.75      0.75      6.79      0.01         0.01
  880                         0.23      0.23      0.24      0.01         0.01
  881                         0.18      0.18      0.23      0.01         0.01
  882                         0.21      0.21      0.38      0.18         0.18
  883                         0.19      0.19      0.22      0.01         0.01
  884                         0.19      0.19      0.19      0.01         0.01
  885                         0.27      0.27      0.36      0.01         0.01
  886                         0.39      0.39      0.97      0.01         0.01
  887                         0.98      0.98     32.58      0.01         0.01
  888                        33.53     33.89     41.26      0.57         0.83
  889                         0.61      0.61     45.54      0.01         0.01
  89                          0.88      0.88      3.63      0.01         0.01
  890                        13.65     13.65     21.61      0.01         0.01
  891                         0.42      0.42     45.91      0.01         0.01
  892                         0.40      0.40      0.42      0.01         0.01
  893                         0.39      0.39      0.40      0.01         0.01
  894                         0.39      0.39      0.39      0.01         0.01
  895                         0.01      0.01     42.75      0.01         0.01
  9                           0.25      0.27      0.25      0.20         0.20
  90                          1.48      1.48      1.66      0.01         0.01
  904                         0.55      0.55      0.58      0.01         0.01
  905                         0.19      0.22      0.19      0.01         0.01
  906                         0.01      0.01      0.27      0.01         0.01
  91                          1.04      1.04      1.40      0.01         0.01
  911                         0.21      0.21      0.25      0.01         0.01
  912                         0.19      0.19      0.21      0.01         0.01
  913                         0.19      0.19      0.19      0.01         0.01
  914                         0.17      0.17      0.19      0.01         0.01
  915                         0.17      0.18      0.17      0.01         0.01
  916                         0.01      0.01      0.08      0.01         0.01
  919                        44.20     44.20     44.27      0.01         0.01
  92                          0.20      0.20      4.56      0.01         0.01
  920                         0.01      0.01     45.12      0.35         0.01
  922                         0.30      0.30      0.30      0.01         0.01
  923                         0.30      0.30      0.31      0.01         0.01
  924                         0.29      0.29      0.30      0.01         0.01
  925                         0.44      0.44      0.46      0.01         0.01
  926                         0.28      0.28      0.36      0.01         0.01
  927                         0.26      0.26      0.28      0.01         0.01
  928                         0.31      0.31      0.34      0.01         0.01
  929                         0.21      0.21      0.23      0.01         0.01
  93                          0.25      0.25      0.90      0.01         0.01
  930                         0.16      0.16      0.21      0.01         0.01
  931                         0.20      0.20      0.25      0.01         0.01
  932                         0.24      0.24      0.25      0.01         0.01
  933                         0.48      0.48      0.53      0.01         0.01
  934                         0.23      0.23      0.25      0.01         0.01
  935                         0.33      0.33      0.43      0.01         0.01
  936                         0.64      0.64      0.65      0.01         0.01
  937                         0.43      0.43      0.46      0.01         0.01
  938                         0.38      0.38      0.58      0.01         0.01
  939                         0.35      0.35      0.43      0.01         0.01
  94                          1.10      1.12      1.11      0.01         0.01
  940                         0.43      0.43      0.49      0.01         0.01
  941                         0.58      0.58      0.67      0.01         0.01
  942                         0.40      0.40      0.67      0.01         0.01
  943                         0.66      0.66      0.97      0.01         0.01
  944                         0.43      0.44      0.43      0.01         0.01
  945                         0.53      0.54      0.53      0.11         0.11
  946                         0.56      0.56      0.62      0.04         0.04
  947                         6.17      6.17     41.53      0.01         0.01
  948                         0.53      0.53      0.60      0.01         0.01
  949                         0.36      0.37      0.36      0.01         0.01
  95                          0.88      0.88      1.03      0.01         0.01
  950                         0.86      0.86      1.15      0.01         0.01
  951                         0.32      0.32      0.35      0.01         0.01
  952                         0.44      0.44      0.89      0.01         0.01
  953                         0.37      0.37      0.41      0.01         0.01
  954                         0.39      0.39      0.41      0.01         0.01
  955                         0.25      0.25      0.39      0.01         0.01
  956                         0.43      0.43      0.50      0.01         0.01
  957                         0.53      0.53      0.55      0.01         0.01
  958                         0.48      0.48      0.67      0.01         0.01
  959                         0.39      0.39      0.48      0.01         0.01
  96                          1.08      1.08      1.11      0.01         0.01
  960                         0.35      0.35      0.39      0.01         0.01
  961                         0.28      0.28      0.35      0.01         0.01
  962                         0.27      0.27      0.28      0.01         0.01
  963                         0.26      0.26      0.27      0.01         0.01
  964                         0.35      0.35      0.42      0.01         0.01
  965                         0.24      0.24      0.42      0.01         0.01
  966                         0.62      0.62      0.65      0.01         0.01
  967                         0.33      0.33      0.61      0.01         0.01
  968                         0.23      0.23      0.27      0.01         0.01
  969                         0.22      0.22      0.23      0.01         0.01
  97                          0.75      0.75      2.87      0.01         0.01
  970                         0.01      0.01      0.02      0.01         0.01
  971                         0.02      0.02      0.25      0.01         0.01
  972                         0.30      0.30      0.43      0.01         0.01
  973                         0.37      0.37      0.52      0.01         0.01
  974                         0.24      0.24      0.36      0.01         0.01
  976                         0.32      0.32      0.34      0.01         0.01
  977                         0.33      0.33      0.34      0.01         0.01
  978                         0.38      0.39      0.39      0.01         0.01
  979                         0.29      0.29      0.33      0.01         0.01
  98                          1.03      1.03      1.36      0.01         0.01
  980                         0.33      0.33      0.34      0.01         0.01
  981                         0.32      0.32      0.40      0.01         0.01
  982                         0.32      0.32      0.33      0.01         0.01
  983                         0.31      0.31      0.33      0.01         0.01
  984                         0.40      0.40      0.72      0.01         0.01
  985                         0.54      0.54      0.58      0.01         0.01
  986                         0.37      0.39      0.38      0.01         0.01
  987                         0.40      0.40      0.69      0.01         0.01
  99                          4.58      4.58     47.18      0.90         0.88
  990                         0.15      0.15      0.18      0.01         0.01
  991                         0.14      0.14      0.17      0.01         0.01
  992                         0.14      0.14      0.15      0.01         0.01
  993                         0.12      0.12      0.14      0.01         0.01
  994                         0.12      0.12      0.15      0.01         0.01
  995                         0.12      0.12      0.12      0.01         0.01
  996                         0.13      0.13      0.15      0.01         0.01
  997                         0.12      0.12      0.13      0.01         0.01
  998                         1.05      1.05      4.44      0.01         0.01
  999                         1.05      1.05      4.44      0.04         0.01
  

  Analysis begun on:  Mon May  9 15:53:11 2022
  Analysis ended on:  Mon May  9 15:55:40 2022
  Total elapsed time: 00:02:29